Log_PowerWorld.txt
Script: OpenCase("CHJ1_PlayIn_RealPMU.PWB",PWB);
Opening Case CHJ1_PlayIn_RealPMU.PWB
Reading PWB File, Version 20 (build 483)
Reading case user names list and password
Reading Schedules
Reading Transient Distribution Equivalent
Reading Bus Records
Reading Transient Load Component
Reading Transient Model Group
Reading Load Records
Reading Gen Records
Reading Switched Shunt Records
Reading Line Records
Reading Area Records
Reading Balancing Authority Records
Reading DC Line Records
Reading VSC DC Line Records
Reading Zone Records
Reading Substation Records
Reading Injection Group Records
Reading Facts Device Records
Reading Nomogram Records
Reading Connection Status Records
Reading Oneline Options records
Reading Bus View Customization records
Reading Post Power Flow SolutionActions
Reading Supplemental Classifications
Reading Supplemental Data
Reading Custom Field Descriptions
Reading Time Step Actions
Reading Case Options
Validating Case
Reading Environment Options
Reading Dynamic Formatting Settings
Reading Contingency Analysis Definitions and Results
Reading OPF/SCOPF Solution Results
Reading Hint Values
Case loaded successfully.
Script: LoadAux("SetupAux.aux");
-----------------------------------------------------------------------------------
Starting load of auxiliary file: SetupAux.aux
-----------------------------------------------------------------------------------
Script: OpenCase("CHJ1_PlayIn_RealPMU.PWB",PWB);
Opening Case CHJ1_PlayIn_RealPMU.PWB
Reading PWB File, Version 20 (build 483)
Reading case user names list and password
Reading Schedules
Reading Transient Distribution Equivalent
Reading Bus Records
Reading Transient Load Component
Reading Transient Model Group
Reading Load Records
Reading Gen Records
Reading Switched Shunt Records
Reading Line Records
Reading Area Records
Reading Balancing Authority Records
Reading DC Line Records
Reading VSC DC Line Records
Reading Zone Records
Reading Substation Records
Reading Injection Group Records
Reading Facts Device Records
Reading Nomogram Records
Reading Connection Status Records
Reading Oneline Options records
Reading Bus View Customization records
Reading Post Power Flow SolutionActions
Reading Supplemental Classifications
Reading Supplemental Data
Reading Custom Field Descriptions
Reading Time Step Actions
Reading Case Options
Validating Case
Reading Environment Options
Reading Dynamic Formatting Settings
Reading Contingency Analysis Definitions and Results
Reading OPF/SCOPF Solution Results
Reading Hint Values
Case loaded successfully.
Script: EnterMode(EDIT);
DATA (BRANCH, [BUSNUM,BUSNAME,BUSNUM:1,BUSNAME:1,LINECIRCUIT,LINER,LINEX]):
1 records read from file.
DATA (BRANCH, [BUSNUM,BUSNAME,BUSNUM:1,BUSNAME:1,LINECIRCUIT,LINER,LINEX,STATUS]):
1 records read from file.
DATA (BRANCH, [BUSNUM,BUSNAME,BUSNUM:1,BUSNAME:1,LINECIRCUIT,LINER,LINEX,STATUS]):
1 records read from file.
DATA (GEN, [BUSNUM,BUSNAME,GENID,VOLTSET]):
1 records read from file.
DATA (BUS, [BUSNUM,BUSNAME,BUSPUVOLT,BUSANGLE]):
1 records read from file.
DATA (GEN, [BUSNUM,BUSNAME,GENID,VOLTSET,GENMW,GENSTATUS]):
1 records read from file.
DATA (GEN, [BUSNUM,BUSNAME,GENID,VOLTSET,GENMW,GENSTATUS]):
1 records read from file.
DATA (GEN, [BUSNUM,BUSNAME,GENID,VOLTSET,GENMW,GENSTATUS]):
1 records read from file.
DATA (GEN, [BUSNUM,BUSNAME,GENID,VOLTSET,GENMW,GENSTATUS]):
1 records read from file.
Script: EnterMode(RUN);
Validation of CHJ1_PlayIn_RealPMU.PWB started at April 02, 2020 11:56:24
Validation of CHJ1_PlayIn_RealPMU.PWB completed with  0 errors and  0 warnings at April 02, 2020 11:56:24
Script: SolvePowerFlow (RECTNEWT,"","");
Number:   0 Max P:    0.000 at bus 44142 Max Q:    0.000 at bus 44155
Finished voltage control loop iteration:   1
Simulation: Successful Power Flow Solution
-----------------------------------------------------------------------------------
Finished load of auxiliary file: SetupAux.aux
-----------------------------------------------------------------------------------
Script: LoadAux("PlayInData.aux");
-----------------------------------------------------------------------------------
Starting load of auxiliary file: PlayInData.aux
-----------------------------------------------------------------------------------
DATA (PLAYIN, [TSNAME,             TSTIMEOFFSET], AUXDEF, YES):
1 records read from file.
DATA (PLAYININFO, [TSNAME,            TSSIGNALINDEX, TSINFONAME,       TSSCALE, TSFILTER], AUXDEF, YES):
2 records read from file.
DATA (PLAYINSIGNAL, [TSNAME,             TSTIME,  TSSIGNAL,  TSSIGNAL:1], AUXDEF, YES):
1801 records read from file.
-----------------------------------------------------------------------------------
Finished load of auxiliary file: PlayInData.aux
-----------------------------------------------------------------------------------
Script: EnterMode(EDIT);
Script: TSLoadGE("CHJ1_PlayIn.dyd", NO, YES);
Reading DYD GE Data Format
Done Reading DYD GE Data Format
Script: EnterMode(RUN);
Validation of CHJ1_PlayIn_RealPMU.PWB started at April 02, 2020 11:56:24
Validation of CHJ1_PlayIn_RealPMU.PWB completed with  0 errors and  0 warnings at April 02, 2020 11:56:24
Script: TSSolveAll;
Starting Solution using Rectangular Newton-Raphson
Number:   0 Max P:    0.000 at bus 44142 Max Q:    0.000 at bus 44155
Finished voltage control loop iteration:   1
Solution Finished in     0.000 Seconds
Simulation: Successful Power Flow Solution
Transient Stability Started at 4/2/2020 11:56:24 AM
Transient Stability Solution Finished at 4/2/2020 11:56:24 AM
Script: LogSave("Log_PowerWorld.txt");
